Version 4
SHEET 1 1124 708
WIRE -672 -80 -672 -128
WIRE -160 -32 -160 -96
WIRE 176 -16 144 -16
WIRE 304 -16 256 -16
WIRE 976 0 752 0
WIRE -672 32 -672 0
WIRE -320 80 -416 80
WIRE -160 80 -160 48
WIRE -160 80 -240 80
WIRE -64 80 -160 80
WIRE -64 96 -64 80
WIRE 32 96 -64 96
WIRE 144 96 144 -16
WIRE 144 96 112 96
WIRE 832 96 832 64
WIRE 224 112 224 80
WIRE 752 112 752 0
WIRE 800 112 752 112
WIRE 144 128 144 96
WIRE 192 128 144 128
WIRE 976 128 976 0
WIRE 976 128 864 128
WIRE 304 144 304 -16
WIRE 304 144 256 144
WIRE 368 144 304 144
WIRE 480 144 448 144
WIRE 528 144 480 144
WIRE 624 144 608 144
WIRE 656 144 624 144
WIRE 768 144 736 144
WIRE 800 144 768 144
WIRE 192 160 144 160
WIRE 768 160 768 144
WIRE 480 176 480 144
WIRE 624 176 624 144
WIRE 32 192 -64 192
WIRE 144 192 144 160
WIRE 144 192 112 192
WIRE 832 192 832 160
WIRE -320 208 -416 208
WIRE -160 208 -240 208
WIRE -64 208 -64 192
WIRE -64 208 -160 208
WIRE 224 208 224 176
WIRE -160 240 -160 208
WIRE 768 240 768 224
WIRE 624 256 624 240
WIRE 976 256 976 128
WIRE 976 256 624 256
WIRE 480 272 480 240
WIRE -528 288 -528 240
WIRE 144 304 144 192
WIRE 192 304 144 304
WIRE 320 304 272 304
WIRE -160 352 -160 320
WIRE 320 368 320 304
WIRE -528 384 -528 368
WIRE -528 448 -528 384
WIRE -528 576 -528 528
WIRE -528 688 -528 656
FLAG 832 192 0
FLAG 224 208 0
FLAG 320 368 0
FLAG 480 272 0
FLAG 768 240 0
FLAG -672 32 0
FLAG -672 -128 Vcc
FLAG 224 80 Vcc
FLAG 832 64 Vcc
FLAG -528 240 Vin+
FLAG -528 384 Vin-
FLAG -160 -96 0
FLAG -160 352 0
FLAG -416 208 Vin+
FLAG -416 80 Vin-
FLAG -64 80 Vopamp-
FLAG -64 192 Vopamp+
FLAG -528 688 0
SYMBOL EXTRA\\ExtraOpamps\\LM324_NS 224 144 R0
SYMATTR InstName U1
SYMBOL res 272 -32 R90
WINDOW 0 0 56 VBottom 2
WINDOW 3 32 56 VTop 2
SYMATTR InstName R1
SYMATTR Value 100k
SYMBOL res 288 288 R90
WINDOW 0 0 56 VBottom 2
WINDOW 3 32 56 VTop 2
SYMATTR InstName R2
SYMATTR Value 100k
SYMBOL res 128 176 R90
WINDOW 0 0 56 VBottom 2
WINDOW 3 32 56 VTop 2
SYMATTR InstName R3
SYMATTR Value 100k
SYMBOL res 128 80 R90
WINDOW 0 0 56 VBottom 2
WINDOW 3 32 56 VTop 2
SYMATTR InstName R4
SYMATTR Value 100k
SYMBOL res 464 128 R90
WINDOW 0 0 56 VBottom 2
WINDOW 3 32 56 VTop 2
SYMATTR InstName R8
SYMATTR Value 5k6
SYMBOL res 624 128 R90
WINDOW 0 0 56 VBottom 2
WINDOW 3 32 56 VTop 2
SYMATTR InstName R9
SYMATTR Value 5k6
SYMBOL res 752 128 R90
WINDOW 0 0 56 VBottom 2
WINDOW 3 32 56 VTop 2
SYMATTR InstName R10
SYMATTR Value 5k6
SYMBOL EXTRA\\ExtraOpamps\\LM324_NS 832 128 R0
SYMATTR InstName U2
SYMBOL cap 608 176 R0
SYMATTR InstName C1
SYMATTR Value 100n
SYMBOL cap 464 176 R0
SYMATTR InstName C2
SYMATTR Value 100n
SYMBOL cap 752 160 R0
SYMATTR InstName C3
SYMATTR Value 100n
SYMBOL voltage -672 -96 R0
WINDOW 123 0 0 Left 0
WINDOW 39 0 0 Left 0
SYMATTR InstName V1
SYMATTR Value 15
SYMBOL voltage -528 272 R0
WINDOW 123 24 124 Left 2
WINDOW 39 0 0 Left 0
SYMATTR InstName V2
SYMATTR Value SINE()
SYMATTR Value2 AC 12
SYMBOL res -224 64 R90
WINDOW 0 0 56 VBottom 2
WINDOW 3 32 56 VTop 2
SYMATTR InstName R5
SYMATTR Value 10k
SYMBOL res -336 224 R270
WINDOW 0 32 56 VTop 2
WINDOW 3 0 56 VBottom 2
SYMATTR InstName R7
SYMATTR Value 10k
SYMBOL res -176 224 R0
SYMATTR InstName R11
SYMATTR Value 2k2
SYMBOL res -176 -48 R0
SYMATTR InstName R12
SYMATTR Value 2k2
SYMBOL voltage -528 560 R0
WINDOW 123 0 0 Left 0
WINDOW 39 0 0 Left 0
SYMATTR InstName V4
SYMATTR Value PULSE(0 16 0 500m 500m 0 1)
SYMBOL voltage -528 432 R0
WINDOW 123 0 0 Left 0
WINDOW 39 0 0 Left 0
SYMATTR InstName V3
SYMATTR Value PULSE(0 16 0 500m 500m 0 1)
TEXT -834 248 Left 2 !.ac dec 1Meg 1 1Meg
